<routes>
            <vType id="typeWE" accel="0.8" decel="4.5" sigma="0.5" length="5" minGap="2.5" maxSpeed="15" guiShape="passenger"/>
            <vType id="typeNS" accel="0.8" decel="4.5" sigma="0.5" length="5" minGap="2.5" maxSpeed="15" guiShape="passenger"/>
            <route id="right" edges="51o 1i 2o 52i" />
            <route id="left" edges="52o 2i 1o 51i" />
            <route id="down" edges="54o 4i 3o 53i" />
            <route id="up" edges="53o 3i 4o 54i" />
    <vehicle id="right_0" type="typeWE" route="right" depart="0" />
    <vehicle id="left_1" type="typeWE" route="left" depart="0" />
    <vehicle id="down_2" type="typeNS" route="down" depart="0" color="1,0,0"/>
    <vehicle id="up_3" type="typeNS" route="up" depart="0" color="1,0,0"/>
    <vehicle id="right_4" type="typeWE" route="right" depart="1" />
    <vehicle id="left_5" type="typeWE" route="left" depart="1" />
    <vehicle id="down_6" type="typeNS" route="down" depart="1" color="1,0,0"/>
    <vehicle id="up_7" type="typeNS" route="up" depart="1" color="1,0,0"/>
    <vehicle id="right_8" type="typeWE" route="right" depart="2" />
    <vehicle id="left_9" type="typeWE" route="left" depart="2" />
    <vehicle id="down_10" type="typeNS" route="down" depart="2" color="1,0,0"/>
    <vehicle id="up_11" type="typeNS" route="up" depart="2" color="1,0,0"/>
    <vehicle id="left_12" type="typeWE" route="left" depart="3" />
    <vehicle id="down_13" type="typeNS" route="down" depart="3" color="1,0,0"/>
    <vehicle id="up_14" type="typeNS" route="up" depart="3" color="1,0,0"/>
    <vehicle id="right_15" type="typeWE" route="right" depart="4" />
    <vehicle id="left_16" type="typeWE" route="left" depart="4" />
    <vehicle id="down_17" type="typeNS" route="down" depart="4" color="1,0,0"/>
    <vehicle id="up_18" type="typeNS" route="up" depart="4" color="1,0,0"/>
    <vehicle id="right_19" type="typeWE" route="right" depart="5" />
    <vehicle id="left_20" type="typeWE" route="left" depart="5" />
    <vehicle id="down_21" type="typeNS" route="down" depart="5" color="1,0,0"/>
    <vehicle id="up_22" type="typeNS" route="up" depart="5" color="1,0,0"/>
    <vehicle id="right_23" type="typeWE" route="right" depart="6" />
    <vehicle id="left_24" type="typeWE" route="left" depart="6" />
    <vehicle id="down_25" type="typeNS" route="down" depart="6" color="1,0,0"/>
    <vehicle id="up_26" type="typeNS" route="up" depart="6" color="1,0,0"/>
    <vehicle id="right_27" type="typeWE" route="right" depart="7" />
    <vehicle id="left_28" type="typeWE" route="left" depart="7" />
    <vehicle id="down_29" type="typeNS" route="down" depart="7" color="1,0,0"/>
    <vehicle id="up_30" type="typeNS" route="up" depart="7" color="1,0,0"/>
    <vehicle id="right_31" type="typeWE" route="right" depart="8" />
    <vehicle id="down_32" type="typeNS" route="down" depart="8" color="1,0,0"/>
    <vehicle id="up_33" type="typeNS" route="up" depart="8" color="1,0,0"/>
    <vehicle id="right_34" type="typeWE" route="right" depart="9" />
    <vehicle id="left_35" type="typeWE" route="left" depart="9" />
    <vehicle id="down_36" type="typeNS" route="down" depart="9" color="1,0,0"/>
    <vehicle id="up_37" type="typeNS" route="up" depart="9" color="1,0,0"/>
    <vehicle id="left_38" type="typeWE" route="left" depart="10" />
    <vehicle id="up_39" type="typeNS" route="up" depart="10" color="1,0,0"/>
    <vehicle id="right_40" type="typeWE" route="right" depart="11" />
    <vehicle id="left_41" type="typeWE" route="left" depart="11" />
    <vehicle id="down_42" type="typeNS" route="down" depart="11" color="1,0,0"/>
    <vehicle id="right_43" type="typeWE" route="right" depart="12" />
    <vehicle id="left_44" type="typeWE" route="left" depart="12" />
    <vehicle id="down_45" type="typeNS" route="down" depart="12" color="1,0,0"/>
    <vehicle id="up_46" type="typeNS" route="up" depart="12" color="1,0,0"/>
    <vehicle id="right_47" type="typeWE" route="right" depart="13" />
    <vehicle id="left_48" type="typeWE" route="left" depart="13" />
    <vehicle id="down_49" type="typeNS" route="down" depart="13" color="1,0,0"/>
    <vehicle id="up_50" type="typeNS" route="up" depart="13" color="1,0,0"/>
    <vehicle id="right_51" type="typeWE" route="right" depart="14" />
    <vehicle id="left_52" type="typeWE" route="left" depart="14" />
    <vehicle id="down_53" type="typeNS" route="down" depart="14" color="1,0,0"/>
    <vehicle id="up_54" type="typeNS" route="up" depart="14" color="1,0,0"/>
    <vehicle id="left_55" type="typeWE" route="left" depart="15" />
    <vehicle id="down_56" type="typeNS" route="down" depart="15" color="1,0,0"/>
    <vehicle id="up_57" type="typeNS" route="up" depart="15" color="1,0,0"/>
    <vehicle id="right_58" type="typeWE" route="right" depart="16" />
    <vehicle id="left_59" type="typeWE" route="left" depart="16" />
    <vehicle id="down_60" type="typeNS" route="down" depart="16" color="1,0,0"/>
    <vehicle id="up_61" type="typeNS" route="up" depart="16" color="1,0,0"/>
    <vehicle id="right_62" type="typeWE" route="right" depart="17" />
    <vehicle id="left_63" type="typeWE" route="left" depart="17" />
    <vehicle id="up_64" type="typeNS" route="up" depart="17" color="1,0,0"/>
    <vehicle id="right_65" type="typeWE" route="right" depart="18" />
    <vehicle id="left_66" type="typeWE" route="left" depart="18" />
    <vehicle id="down_67" type="typeNS" route="down" depart="18" color="1,0,0"/>
    <vehicle id="right_68" type="typeWE" route="right" depart="19" />
    <vehicle id="left_69" type="typeWE" route="left" depart="19" />
    <vehicle id="down_70" type="typeNS" route="down" depart="19" color="1,0,0"/>
    <vehicle id="up_71" type="typeNS" route="up" depart="19" color="1,0,0"/>
    <vehicle id="right_72" type="typeWE" route="right" depart="20" />
    <vehicle id="left_73" type="typeWE" route="left" depart="20" />
    <vehicle id="down_74" type="typeNS" route="down" depart="20" color="1,0,0"/>
    <vehicle id="up_75" type="typeNS" route="up" depart="20" color="1,0,0"/>
    <vehicle id="left_76" type="typeWE" route="left" depart="21" />
    <vehicle id="down_77" type="typeNS" route="down" depart="21" color="1,0,0"/>
    <vehicle id="up_78" type="typeNS" route="up" depart="21" color="1,0,0"/>
    <vehicle id="right_79" type="typeWE" route="right" depart="22" />
    <vehicle id="left_80" type="typeWE" route="left" depart="22" />
    <vehicle id="down_81" type="typeNS" route="down" depart="22" color="1,0,0"/>
    <vehicle id="up_82" type="typeNS" route="up" depart="22" color="1,0,0"/>
    <vehicle id="right_83" type="typeWE" route="right" depart="23" />
    <vehicle id="left_84" type="typeWE" route="left" depart="23" />
    <vehicle id="down_85" type="typeNS" route="down" depart="23" color="1,0,0"/>
    <vehicle id="up_86" type="typeNS" route="up" depart="23" color="1,0,0"/>
    <vehicle id="right_87" type="typeWE" route="right" depart="24" />
    <vehicle id="left_88" type="typeWE" route="left" depart="24" />
    <vehicle id="down_89" type="typeNS" route="down" depart="24" color="1,0,0"/>
    <vehicle id="up_90" type="typeNS" route="up" depart="24" color="1,0,0"/>
    <vehicle id="left_91" type="typeWE" route="left" depart="25" />
    <vehicle id="down_92" type="typeNS" route="down" depart="25" color="1,0,0"/>
    <vehicle id="up_93" type="typeNS" route="up" depart="25" color="1,0,0"/>
    <vehicle id="right_94" type="typeWE" route="right" depart="26" />
    <vehicle id="down_95" type="typeNS" route="down" depart="26" color="1,0,0"/>
    <vehicle id="up_96" type="typeNS" route="up" depart="26" color="1,0,0"/>
    <vehicle id="right_97" type="typeWE" route="right" depart="27" />
    <vehicle id="left_98" type="typeWE" route="left" depart="27" />
    <vehicle id="down_99" type="typeNS" route="down" depart="27" color="1,0,0"/>
    <vehicle id="up_100" type="typeNS" route="up" depart="27" color="1,0,0"/>
    <vehicle id="right_101" type="typeWE" route="right" depart="28" />
    <vehicle id="left_102" type="typeWE" route="left" depart="28" />
    <vehicle id="down_103" type="typeNS" route="down" depart="28" color="1,0,0"/>
    <vehicle id="up_104" type="typeNS" route="up" depart="28" color="1,0,0"/>
    <vehicle id="right_105" type="typeWE" route="right" depart="29" />
    <vehicle id="left_106" type="typeWE" route="left" depart="29" />
    <vehicle id="down_107" type="typeNS" route="down" depart="29" color="1,0,0"/>
    <vehicle id="right_108" type="typeWE" route="right" depart="30" />
    <vehicle id="left_109" type="typeWE" route="left" depart="30" />
    <vehicle id="down_110" type="typeNS" route="down" depart="30" color="1,0,0"/>
    <vehicle id="up_111" type="typeNS" route="up" depart="30" color="1,0,0"/>
    <vehicle id="right_112" type="typeWE" route="right" depart="31" />
    <vehicle id="left_113" type="typeWE" route="left" depart="31" />
    <vehicle id="down_114" type="typeNS" route="down" depart="31" color="1,0,0"/>
    <vehicle id="up_115" type="typeNS" route="up" depart="31" color="1,0,0"/>
    <vehicle id="right_116" type="typeWE" route="right" depart="32" />
    <vehicle id="left_117" type="typeWE" route="left" depart="32" />
    <vehicle id="down_118" type="typeNS" route="down" depart="32" color="1,0,0"/>
    <vehicle id="up_119" type="typeNS" route="up" depart="32" color="1,0,0"/>
    <vehicle id="right_120" type="typeWE" route="right" depart="33" />
    <vehicle id="left_121" type="typeWE" route="left" depart="33" />
    <vehicle id="down_122" type="typeNS" route="down" depart="33" color="1,0,0"/>
    <vehicle id="up_123" type="typeNS" route="up" depart="33" color="1,0,0"/>
    <vehicle id="right_124" type="typeWE" route="right" depart="34" />
    <vehicle id="down_125" type="typeNS" route="down" depart="34" color="1,0,0"/>
    <vehicle id="up_126" type="typeNS" route="up" depart="34" color="1,0,0"/>
    <vehicle id="right_127" type="typeWE" route="right" depart="35" />
    <vehicle id="left_128" type="typeWE" route="left" depart="35" />
    <vehicle id="down_129" type="typeNS" route="down" depart="35" color="1,0,0"/>
    <vehicle id="up_130" type="typeNS" route="up" depart="35" color="1,0,0"/>
    <vehicle id="left_131" type="typeWE" route="left" depart="36" />
    <vehicle id="up_132" type="typeNS" route="up" depart="36" color="1,0,0"/>
    <vehicle id="right_133" type="typeWE" route="right" depart="37" />
    <vehicle id="left_134" type="typeWE" route="left" depart="37" />
    <vehicle id="down_135" type="typeNS" route="down" depart="37" color="1,0,0"/>
    <vehicle id="up_136" type="typeNS" route="up" depart="37" color="1,0,0"/>
    <vehicle id="right_137" type="typeWE" route="right" depart="38" />
    <vehicle id="left_138" type="typeWE" route="left" depart="38" />
    <vehicle id="down_139" type="typeNS" route="down" depart="38" color="1,0,0"/>
    <vehicle id="up_140" type="typeNS" route="up" depart="38" color="1,0,0"/>
    <vehicle id="left_141" type="typeWE" route="left" depart="39" />
    <vehicle id="down_142" type="typeNS" route="down" depart="39" color="1,0,0"/>
    <vehicle id="up_143" type="typeNS" route="up" depart="39" color="1,0,0"/>
    <vehicle id="right_144" type="typeWE" route="right" depart="40" />
    <vehicle id="left_145" type="typeWE" route="left" depart="40" />
    <vehicle id="down_146" type="typeNS" route="down" depart="40" color="1,0,0"/>
    <vehicle id="up_147" type="typeNS" route="up" depart="40" color="1,0,0"/>
    <vehicle id="right_148" type="typeWE" route="right" depart="41" />
    <vehicle id="left_149" type="typeWE" route="left" depart="41" />
    <vehicle id="down_150" type="typeNS" route="down" depart="41" color="1,0,0"/>
    <vehicle id="up_151" type="typeNS" route="up" depart="41" color="1,0,0"/>
    <vehicle id="right_152" type="typeWE" route="right" depart="42" />
    <vehicle id="left_153" type="typeWE" route="left" depart="42" />
    <vehicle id="down_154" type="typeNS" route="down" depart="42" color="1,0,0"/>
    <vehicle id="right_155" type="typeWE" route="right" depart="43" />
    <vehicle id="left_156" type="typeWE" route="left" depart="43" />
    <vehicle id="down_157" type="typeNS" route="down" depart="43" color="1,0,0"/>
    <vehicle id="up_158" type="typeNS" route="up" depart="43" color="1,0,0"/>
    <vehicle id="right_159" type="typeWE" route="right" depart="44" />
    <vehicle id="left_160" type="typeWE" route="left" depart="44" />
    <vehicle id="down_161" type="typeNS" route="down" depart="44" color="1,0,0"/>
    <vehicle id="up_162" type="typeNS" route="up" depart="44" color="1,0,0"/>
    <vehicle id="right_163" type="typeWE" route="right" depart="45" />
    <vehicle id="left_164" type="typeWE" route="left" depart="45" />
    <vehicle id="down_165" type="typeNS" route="down" depart="45" color="1,0,0"/>
    <vehicle id="up_166" type="typeNS" route="up" depart="45" color="1,0,0"/>
    <vehicle id="right_167" type="typeWE" route="right" depart="46" />
    <vehicle id="left_168" type="typeWE" route="left" depart="46" />
    <vehicle id="down_169" type="typeNS" route="down" depart="46" color="1,0,0"/>
    <vehicle id="up_170" type="typeNS" route="up" depart="46" color="1,0,0"/>
    <vehicle id="right_171" type="typeWE" route="right" depart="47" />
    <vehicle id="left_172" type="typeWE" route="left" depart="47" />
    <vehicle id="up_173" type="typeNS" route="up" depart="47" color="1,0,0"/>
    <vehicle id="right_174" type="typeWE" route="right" depart="48" />
    <vehicle id="left_175" type="typeWE" route="left" depart="48" />
    <vehicle id="down_176" type="typeNS" route="down" depart="48" color="1,0,0"/>
    <vehicle id="up_177" type="typeNS" route="up" depart="48" color="1,0,0"/>
    <vehicle id="right_178" type="typeWE" route="right" depart="49" />
    <vehicle id="left_179" type="typeWE" route="left" depart="49" />
    <vehicle id="down_180" type="typeNS" route="down" depart="49" color="1,0,0"/>
    <vehicle id="up_181" type="typeNS" route="up" depart="49" color="1,0,0"/>
</routes>
